examples/n1_f1/opendss/LV_N1_F1_EXP_CURRENTS.CSV
Element, I1_1, Ang1_1, I1_2, Ang1_2, I1_3, Ang1_3, I1_4, Ang1_4, Iresid1, AngResid1, I2_1, Ang2_1, I2_2, Ang2_2, I2_3, Ang2_3, I2_4, Ang2_4, Iresid2, AngResid2
Vsource.SOURCE,    3.38036,   160.18,    2.86364,    37.77,    3.04182,   -72.46,          0,     0.00, 1.04814E-012,   130.60,    3.38036,   -19.82,    2.86364,  -142.23,    3.04182,   107.54,          0,     0.00, 1.04814E-012,   -49.40
Line.LINE1,     93.744,   -48.03,    84.7155,  -168.29,    66.4532,    71.84,          0,     0.00,    23.7544,   -88.90,     93.744,   131.97,    84.7155,    11.71,    66.4532,  -108.16,          0,     0.00,    23.7544,    91.10
Line.LINE2,     93.744,   -48.03,    84.7155,  -168.29,    66.4532,    71.84,          0,     0.00,    23.7544,   -88.90,     93.744,   131.97,    84.7155,    11.71,    66.4532,  -108.16,          0,     0.00,    23.7544,    91.10
Line.LINE3,     93.744,   -48.03,    84.7155,  -168.29,    66.4532,    71.84,          0,     0.00,    23.7544,   -88.90,     93.744,   131.97,    84.7155,    11.71,    66.4532,  -108.16,          0,     0.00,    23.7544,    91.10
Line.LINE4,     93.744,   -48.03,    84.7155,  -168.29,    66.4532,    71.84,          0,     0.00,    23.7544,   -88.90,     93.744,   131.97,    84.7155,    11.71,    66.4532,  -108.16,          0,     0.00,    23.7544,    91.10
Line.LINE5,     93.744,   -48.03,    84.7155,  -168.29,    66.4532,    71.84,          0,     0.00,    23.7544,   -88.90,     93.744,   131.97,    84.7155,    11.71,    66.4532,  -108.16,          0,     0.00,    23.7544,    91.10
Line.LINE6,     93.744,   -48.03,    84.7155,  -168.29,    66.4532,    71.84,          0,     0.00,    23.7544,   -88.90,     93.744,   131.97,    84.7155,    11.71,    66.4532,  -108.16,          0,     0.00,    23.7544,    91.10
Line.LINE7,     93.744,   -48.03,    84.7155,  -168.29,    66.4532,    71.84,          0,     0.00,    23.7544,   -88.90,     93.744,   131.97,    84.7155,    11.71,    66.4532,  -108.16,          0,     0.00,    23.7544,    91.10
Line.LINE8,     93.744,   -48.03,    84.7155,  -168.29,    66.4532,    71.84,          0,     0.00,    23.7544,   -88.90,     93.744,   131.97,    84.7155,    11.71,    66.4532,  -108.16,          0,     0.00,    23.7544,    91.10
Line.LINE9,     93.744,   -48.03,    84.7155,  -168.29,    66.4532,    71.84,          0,     0.00,    23.7544,   -88.90,     93.744,   131.97,    84.7155,    11.71,    66.4532,  -108.16,          0,     0.00,    23.7544,    91.10
Line.LINE10,     93.744,   -48.03,    84.7155,  -168.29,    66.4532,    71.84,          0,     0.00,    23.7544,   -88.90,     93.744,   131.97,    84.7155,    11.71,    66.4532,  -108.16,          0,     0.00,    23.7544,    91.10
Line.LINE11,     93.744,   -48.03,    84.7155,  -168.29,    66.4532,    71.84,          0,     0.00,    23.7544,   -88.90,     93.744,   131.97,    84.7155,    11.71,    66.4532,  -108.16,          0,     0.00,    23.7544,    91.10
Line.LINE12,     93.744,   -48.03,    84.7155,  -168.29,    66.4532,    71.84,          0,     0.00,    23.7544,   -88.90,     93.744,   131.97,    84.7155,    11.71,    66.4532,  -108.16,          0,     0.00,    23.7544,    91.10
Line.LINE13,     93.744,   -48.03,    84.7155,  -168.29,    66.4532,    71.84,          0,     0.00,    23.7544,   -88.90,     93.744,   131.97,    84.7155,    11.71,    66.4532,  -108.16,          0,     0.00,    23.7544,    91.10
Line.LINE14,     93.744,   -48.03,    84.7155,  -168.29,    66.4532,    71.84,          0,     0.00,    23.7544,   -88.90,     93.744,   131.97,    84.7155,    11.71,    66.4532,  -108.16,          0,     0.00,    23.7544,    91.10
Line.LINE15, 9.3857E-010,   -29.74, 9.68769E-010,  -147.26, 9.31578E-010,    88.66,          0,     0.00, 6.21658E-011,   -69.44, 9.3857E-010,   150.26, 9.68769E-010,    32.74, 9.31578E-010,   -91.34,          0,     0.00, 6.21658E-011,   110.56
Line.LINE16,     93.744,   -48.03,    84.7155,  -168.29,    66.4532,    71.84,          0,     0.00,    23.7544,   -88.90,     93.744,   131.97,    84.7155,    11.71,    66.4532,  -108.16,          0,     0.00,    23.7544,    91.10
Line.LINE17, 7.80938E-010,   -26.57, 5.82077E-010,  -143.13, 6.98833E-010,    88.21,          0,     0.00, 2.54659E-010,     0.00, 7.80938E-010,   153.43, 5.82077E-010,    36.87, 6.98833E-010,   -91.79,          0,     0.00, 2.54659E-010,   180.00
Line.LINE18,     93.744,   -48.03,    84.7155,  -168.29,    66.4532,    71.84,          0,     0.00,    23.7544,   -88.90,     93.744,   131.97,    84.7155,    11.71,    66.4532,  -108.16,          0,     0.00,    23.7544,    91.10
Line.LINE19, 5.20625E-010,   -26.57, 5.20625E-010,  -153.43, 4.65889E-010,    88.21,          0,     0.00, 1.45519E-011,     0.00, 5.20625E-010,   153.43, 5.20625E-010,    26.57, 4.65889E-010,   -91.79,          0,     0.00, 1.45519E-011,   180.00
Line.LINE20,     93.744,   -48.03,    84.7155,  -168.29,    66.4532,    71.84,          0,     0.00,    23.7544,   -88.90,     93.744,   131.97,    84.7155,    11.71,    66.4532,  -108.16,          0,     0.00,    23.7544,    91.10
Line.LINE21, 8.39483E-010,   -33.69, 1.04125E-009,  -153.43, 1.39715E-009,    89.10,          0,     0.00, 5.11236E-010,   114.38, 8.39483E-010,   146.31, 1.04125E-009,    26.57, 1.39715E-009,   -90.90,          0,     0.00, 5.11236E-010,   -65.62
Line.LINE22,     93.744,   -48.03,    84.7155,  -168.29,    66.4532,    71.84,          0,     0.00,    23.7544,   -88.90,     93.744,   131.97,    84.7155,    11.71,    66.4532,  -108.16,          0,     0.00,    23.7544,    91.10
Line.LINE23, 9.3857E-010,   -29.74, 1.04125E-009,  -153.43, 9.31578E-010,    88.66,          0,     0.00, 9.45874E-011,   180.00, 9.3857E-010,   150.26, 1.04125E-009,    26.57, 9.31578E-010,   -91.34,          0,     0.00, 9.45874E-011,     0.00
Line.LINE24,     93.744,   -48.03,    84.7155,  -168.29,    66.4532,    71.84,          0,     0.00,    23.7544,   -88.90,     93.744,   131.97,    84.7155,    11.71,    66.4532,  -108.16,          0,     0.00,    23.7544,    91.10
Line.LINE25, 9.3857E-010,   -29.74, 1.19857E-009,  -150.95, 1.1643E-009,    89.10,          0,     0.00, 2.44179E-010,   151.53, 9.3857E-010,   150.26, 1.19857E-009,    29.05, 1.1643E-009,   -90.90,          0,     0.00, 2.44179E-010,   -28.47
Line.LINE26,     8.8158,   -48.21, 1.30328E-009,    23.94, 1.26755E-009,   -92.82,          0,     0.00,     8.8158,   -48.21,     8.8158,   131.79, 1.30328E-009,  -156.06, 1.26755E-009,    87.18,          0,     0.00,     8.8158,   131.79
Line.LINE27,    84.9282,   -48.01,    84.7155,  -168.29,    66.4532,    71.84,          0,     0.00,    18.0114,  -107.51,    84.9282,   131.99,    84.7155,    11.71,    66.4532,  -108.16,          0,     0.00,    18.0114,    72.49
Line.LINE28, 7.45422E-010,   -38.66, 7.80938E-010,  -153.43, 6.98833E-010,    88.21,          0,     0.00, 1.49998E-010,  -129.09, 7.45422E-010,   141.34, 7.80938E-010,    26.57, 6.98833E-010,   -91.79,          0,     0.00, 1.49998E-010,    50.91
Line.LINE29,    4.40784,   -48.21, 2.86608E-011,   148.96, 1.46652E-011,    82.87,          0,     0.00,    4.40784,   -48.21,    4.40784,   131.79, 2.86608E-011,   -31.04, 1.46652E-011,   -97.13,          0,     0.00,    4.40784,   131.79
Line.LINE30,    4.40796,   -48.21, 1.27645E-009,    24.58, 1.26771E-009,   -92.96,          0,     0.00,    4.40796,   -48.21,    4.40796,   131.79, 1.27645E-009,  -155.42, 1.26771E-009,    87.04,          0,     0.00,    4.40796,   131.79
Line.LINE31,    84.9282,   -48.01,    84.7155,  -168.29,    66.4532,    71.84,          0,     0.00,    18.0114,  -107.51,    84.9282,   131.99,    84.7155,    11.71,    66.4532,  -108.16,          0,     0.00,    18.0114,    72.49
Line.LINE32, 5.82077E-010,   -36.87, 5.99285E-010,  -150.95, 6.40494E-010,    88.54,          0,     0.00, 4.18368E-011,   180.00, 5.82077E-010,   143.13, 5.99285E-010,    29.05, 6.40494E-010,   -91.46,          0,     0.00, 4.18368E-011,     0.00
Line.LINE33,    4.40784,   -48.21, 3.10776E-012,   169.46,          0,     0.00,          0,     0.00,    4.40784,   -48.21,    4.40784,   131.79, 3.10776E-012,   -10.54,          0,     0.00,          0,     0.00,    4.40784,   131.79
Line.LINE34,    4.40796,   -48.21, 2.42367E-009,    20.93, 1.40183E-009,   -94.76,          0,     0.00,    4.40796,   -48.21,    4.40796,   131.79, 2.42367E-009,  -159.07, 1.40183E-009,    85.24,          0,     0.00,    4.40796,   131.79
Line.LINE35, 4.13036E-010,   143.08,    8.83249,  -168.28, 6.35435E-010,   -95.01,          0,     0.00,    8.83249,  -168.28, 4.13036E-010,   -36.92,    8.83249,    11.72, 6.35435E-010,    84.99,          0,     0.00,    8.83249,    11.72
Line.LINE36,    84.9282,   -48.01,     75.883,  -168.29,    66.4532,    71.84,          0,     0.00,     15.717,   -78.15,    84.9282,   131.99,     75.883,    11.71,    66.4532,  -108.16,          0,     0.00,     15.717,   101.85
Line.LINE37, 5.00721E-010,   -35.54, 4.36557E-010,  -143.13, 5.24071E-010,    88.41,          0,     0.00, 7.83645E-011,   -21.80, 5.00721E-010,   144.46, 4.36557E-010,    36.87, 5.24071E-010,   -91.59,          0,     0.00, 7.83645E-011,   158.20
Line.LINE38,    4.40796,   -48.21, 2.87517E-010,   110.56, 9.31323E-010,   -90.00,          0,     0.00,    4.40796,   -48.21,    4.40796,   131.79, 2.87517E-010,   -69.44, 9.31323E-010,    90.00,          0,     0.00,    4.40796,   131.79
Line.LINE39, 4.37719E-010,   149.40,    4.41626,  -168.28, 4.1159E-010,   -98.13,          0,     0.00,    4.41626,  -168.28, 4.37719E-010,   -30.60,    4.41626,    11.72, 4.1159E-010,    81.87,          0,     0.00,    4.41626,    11.72
Line.LINE40, 1.93281E-011,    90.67,    4.41623,  -168.28, 2.9611E-011,   100.62,          0,     0.00,    4.41623,  -168.28, 1.93281E-011,   -89.33,    4.41623,    11.72, 2.9611E-011,   -79.38,          0,     0.00,    4.41623,    11.72
Line.LINE41,    84.9282,   -48.01,     75.883,  -168.29,    66.4532,    71.84,          0,     0.00,     15.717,   -78.15,    84.9282,   131.99,     75.883,    11.71,    66.4532,  -108.16,          0,     0.00,     15.717,   101.85
Line.LINE42, 8.03856E-009,    79.99, 9.09233E-010,    50.19, 4.93359E-009,    70.71,          0,     0.00, 1.37533E-008,    74.79, 8.03856E-009,  -100.01, 9.09233E-010,  -129.81, 4.93359E-009,  -109.29,          0,     0.00, 1.37533E-008,  -105.21
Line.LINE43, 4.19741E-010,   -56.31, 4.79993E-010,  -165.96, 4.66173E-010,    87.32,          0,     0.00, 2.11003E-010,   180.00, 4.19741E-010,   123.69, 4.79993E-010,    14.04, 4.66173E-010,   -92.68,          0,     0.00, 2.11003E-010,     0.00
Line.LINE44,    4.40796,   -48.21, 1.06251E-010,   -51.95,          0,     0.00,          0,     0.00,    4.40796,   -48.21,    4.40796,   131.79, 1.06251E-010,   128.05,          0,     0.00,          0,     0.00,    4.40796,   131.79
Line.LINE45, 1.80731E-010,   139.90,    4.41626,  -168.28, 6.99855E-010,   -93.58,          0,     0.00,    4.41626,  -168.28, 1.80731E-010,   -40.10,    4.41626,    11.72, 6.99855E-010,    86.42,          0,     0.00,    4.41626,    11.72
Line.LINE46, 9.04303E-012,   155.49,    4.41623,  -168.28, 7.33258E-012,   -82.87,          0,     0.00,    4.41623,  -168.28, 9.04303E-012,   -24.51,    4.41623,    11.72, 7.33258E-012,    97.13,          0,     0.00,    4.41623,    11.72
Line.LINE47,    84.9282,   -48.01,     75.883,  -168.29,    66.4532,    71.84,          0,     0.00,     15.717,   -78.15,    84.9282,   131.99,     75.883,    11.71,    66.4532,  -108.16,          0,     0.00,     15.717,   101.85
Line.LINE48, 7.52299E-009,   111.80, 1.39698E-009,     0.00, 7.67988E-009,    75.96,          0,     0.00, 1.4443E-008,    88.15, 7.52299E-009,   -68.20, 1.39698E-009,   180.00, 7.67988E-009,  -104.04,          0,     0.00, 1.4443E-008,   -91.85
Line.LINE49, 7.80938E-010,   -26.57, 6.58545E-010,  -135.00, 6.98729E-010,    88.51,          0,     0.00, 2.76702E-010,   -24.88, 7.80938E-010,   153.43, 6.58545E-010,    45.00, 6.98729E-010,   -91.49,          0,     0.00, 2.76702E-010,   155.12
Line.LINE50,    4.40796,   -48.21, 1.80163E-010,   125.13, 1.18444E-010,   100.62,          0,     0.00,    4.40796,   -48.21,    4.40796,   131.79, 1.80163E-010,   -54.87, 1.18444E-010,   -79.38,          0,     0.00,    4.40796,   131.79
Line.LINE51, 3.73253E-011,    67.81,    4.41626,  -168.28, 9.3314E-010,   -93.58,          0,     0.00,    4.41626,  -168.28, 3.73253E-011,  -112.19,    4.41626,    11.72, 9.3314E-010,    86.42,          0,     0.00,    4.41626,    11.72
Line.LINE52,    84.9282,   -48.01,     75.883,  -168.29,    66.4532,    71.84,          0,     0.00,     15.717,   -78.15,    84.9282,   131.99,     75.883,    11.71,    66.4532,  -108.16,          0,     0.00,     15.717,   101.85
Line.LINE53, 2.8895E-009,   -63.69, 7.27596E-010,   -53.13, 6.03685E-010,   105.38,          0,     0.00, 3.02221E-009,   -58.99, 2.8895E-009,   116.31, 7.27596E-010,   126.87, 6.03685E-010,   -74.62,          0,     0.00, 3.02221E-009,   121.01
Line.LINE54, 6.33368E-009,   107.10, 2.71525E-009,   149.04, 2.63418E-009,    45.00,          0,     0.00, 9.59985E-009,   104.04, 6.33368E-009,   -72.90, 2.71525E-009,   -30.96, 2.63418E-009,  -135.00,          0,     0.00, 9.59985E-009,   -75.96
Line.LINE55, 5.82077E-010,   -36.87, 4.54616E-010,  -140.19, 4.65718E-010,    89.10,          0,     0.00, 2.13992E-010,   -54.69, 5.82077E-010,   143.13, 4.54616E-010,    39.81, 4.65718E-010,   -90.90,          0,     0.00, 2.13992E-010,   125.31
Line.LINE56,    4.40796,   -48.21, 4.88764E-011,    45.00, 2.33285E-010,   -93.58,          0,     0.00,    4.40796,   -48.21,    4.40796,   131.79, 4.88764E-011,  -135.00, 2.33285E-010,    86.42,          0,     0.00,    4.40796,   131.79
Line.LINE57, 2.47016E-010,   176.20,    4.41626,  -168.28, 4.36557E-011,   180.00,          0,     0.00,    4.41626,  -168.28, 2.47016E-010,    -3.80,    4.41626,    11.72, 4.36557E-011,     0.00,          0,     0.00,    4.41626,    11.72
Line.LINE58,    84.9282,   -48.01,     75.883,  -168.29,    66.4532,    71.84,          0,     0.00,     15.717,   -78.15,    84.9282,   131.99,     75.883,    11.71,    66.4532,  -108.16,          0,     0.00,     15.717,   101.85
Line.LINE59, 2.69081E-009,   -51.15, 7.567E-010,   -67.38, 1.8951E-009,   100.62,          0,     0.00, 1.87714E-009,   -29.74, 2.69081E-009,   128.85, 7.567E-010,   112.62, 1.8951E-009,   -79.38,          0,     0.00, 1.87714E-009,   150.26
Line.LINE60, 7.23276E-009,   123.18, 9.59985E-010,   104.04, 6.71586E-009,    56.31,          0,     0.00, 1.25815E-008,    92.12, 7.23276E-009,   -56.82, 9.59985E-010,   -75.96, 6.71586E-009,  -123.69,          0,     0.00, 1.25815E-008,   -87.88
Line.LINE61, 7.567E-010,   -22.62, 6.78812E-010,  -149.04, 6.9853E-010,    89.40,          0,     0.00, 1.36703E-010,    25.20, 7.567E-010,   157.38, 6.78812E-010,    30.96, 6.9853E-010,   -90.60,          0,     0.00, 1.36703E-010,  -154.80
Line.LINE62,    4.40796,   -48.21, 9.63592E-012,   160.71, 2.91606E-011,   -93.58,          0,     0.00,    4.40796,   -48.21,    4.40796,   131.79, 9.63592E-012,   -19.29, 2.91606E-011,    86.42,          0,     0.00,    4.40796,   131.79
Line.LINE63, 1.81136E-010,   -55.43,    4.41626,  -168.28,          0,     0.00,          0,     0.00,    4.41626,  -168.28, 1.81136E-010,   124.57,    4.41626,    11.72,          0,     0.00,          0,     0.00,    4.41626,    11.72
Line.LINE64,    76.0606,   -48.00,     75.883,  -168.29,    66.4532,    71.84,          0,     0.00,    9.18204,  -107.04,    76.0606,   132.00,     75.883,    11.71,    66.4532,  -108.16,          0,     0.00,    9.18204,    72.96
Line.LINE65,    8.86764,   -48.12, 3.90861E-011,  -149.98, 4.00959E-011,    93.58,          0,     0.00,    8.86764,   -48.12,    8.86764,   131.88, 3.90861E-011,    30.02, 4.00959E-011,   -86.42,          0,     0.00,    8.86764,   131.88
Line.LINE66, 2.45578E-009,   -58.57, 2.60898E-009,  -141.34, 1.98931E-009,    69.44,          0,     0.00, 1.86355E-009,   -91.79, 2.45578E-009,   121.43, 2.60898E-009,    38.66, 1.98931E-009,  -110.56,          0,     0.00, 1.86355E-009,    88.21
Line.LINE67, 5.62661E-009,    65.56, 1.62981E-009,   180.00,  8.33E-009,    63.43,          0,     0.00, 1.33284E-008,    70.62, 5.62661E-009,  -114.44, 1.62981E-009,     0.00,  8.33E-009,  -116.57,          0,     0.00, 1.33284E-008,  -109.38
Line.LINE68, 5.20625E-010,   -26.57, 6.50781E-010,  -153.43, 6.9853E-010,    89.40,          0,     0.00, 2.05924E-010,   122.01, 5.20625E-010,   153.43, 6.50781E-010,    26.57, 6.9853E-010,   -90.60,          0,     0.00, 2.05924E-010,   -57.99
Line.LINE69,    4.40796,   -48.21, 1.32468E-011,    -5.42, 1.45803E-011,    86.42,          0,     0.00,    4.40796,   -48.21,    4.40796,   131.79, 1.32468E-011,   174.58, 1.45803E-011,   -93.58,          0,     0.00,    4.40796,   131.79
Line.LINE70, 2.6684E-010,  -154.13,    4.41626,  -168.28, 2.36888E-010,  -100.62,          0,     0.00,    4.41626,  -168.28, 2.6684E-010,    25.87,    4.41626,    11.72, 2.36888E-010,    79.38,          0,     0.00,    4.41626,    11.72
Line.LINE71,    76.0606,   -48.00,     75.883,  -168.29,    66.4532,    71.84,          0,     0.00,    9.18204,  -107.04,    76.0606,   132.00,     75.883,    11.71,    66.4532,  -108.16,          0,     0.00,    9.18204,    72.96
Line.LINE72,    4.43382,   -48.12, 3.75298E-012,  -160.54, 7.27596E-012,   -90.00,          0,     0.00,    4.43382,   -48.12,    4.43382,   131.88, 3.75298E-012,    19.46, 7.27596E-012,    90.00,          0,     0.00,    4.43382,   131.88
Line.LINE73,    4.43382,   -48.12, 3.75298E-012,  -160.54, 7.27596E-012,   -90.00,          0,     0.00,    4.43382,   -48.12,    4.43382,   131.88, 3.75298E-012,    19.46, 7.27596E-012,    90.00,          0,     0.00,    4.43382,   131.88
Line.LINE74, 2.43935E-009,   -19.52, 1.42103E-009,  -145.01, 1.86355E-009,    88.21,          0,     0.00, 1.21576E-009,    11.04, 2.43935E-009,   160.48, 1.42103E-009,    34.99, 1.86355E-009,   -91.79,          0,     0.00, 1.21576E-009,  -168.96
Line.LINE75, 4.63912E-009,   107.53, 2.91038E-009,  -126.87, 6.33368E-009,    72.90,          0,     0.00, 8.24908E-009,    98.93, 4.63912E-009,   -72.47, 2.91038E-009,    53.13, 6.33368E-009,  -107.10,          0,     0.00, 8.24908E-009,   -81.07
Line.LINE76, 6.3896E-010,   -30.07, 6.3896E-010,  -149.93, 6.69389E-010,    89.88,          0,     0.00, 2.91358E-011,    87.32, 6.3896E-010,   149.93, 6.3896E-010,    30.07, 6.69389E-010,   -90.12,          0,     0.00, 2.91358E-011,   -92.68
Line.LINE77, 5.31871E-011,    -3.43,    4.41626,  -168.28,          0,     0.00,          0,     0.00,    4.41626,  -168.28, 5.31871E-011,   176.57,    4.41626,    11.72,          0,     0.00,          0,     0.00,    4.41626,    11.72
Line.LINE78,    76.0606,   -48.00,     75.883,  -168.29,    66.4532,    71.84,          0,     0.00,    9.18204,  -107.04,    76.0606,   132.00,     75.883,    11.71,    66.4532,  -108.16,          0,     0.00,    9.18204,    72.96
Line.LINE79, 2.02162E-009,    -6.61, 2.00479E-009,  -166.57, 3.49246E-010,     0.00,          0,     0.00, 8.08647E-010,   -59.74, 2.02162E-009,   173.39, 2.00479E-009,    13.43, 3.49246E-010,   180.00,          0,     0.00, 8.08647E-010,   120.26
Line.LINE80, 4.83623E-009,   102.87, 1.78485E-009,  -114.06, 6.01345E-009,    62.94,          0,     0.00, 8.49134E-009,    83.70, 4.83623E-009,   -77.13, 1.78485E-009,    65.94, 6.01345E-009,  -117.06,          0,     0.00, 8.49134E-009,   -96.30
Line.LINE81, 6.71441E-010,   -29.90, 6.51594E-010,  -150.57, 6.69389E-010,    89.92,          0,     0.00, 2.12324E-011,    43.26, 6.71441E-010,   150.10, 6.51594E-010,    29.43, 6.69389E-010,   -90.08,          0,     0.00, 2.12324E-011,  -136.74
Line.LINE82, 1.09936E-011,    17.45,    4.41626,  -168.28, 9.09495E-013,   180.00,          0,     0.00,    4.41626,  -168.28, 1.09936E-011,  -162.55,    4.41626,    11.72, 9.09495E-013,     0.00,          0,     0.00,    4.41626,    11.72
Line.LINE83,    76.0606,   -48.00,     75.883,  -168.29,    66.4532,    71.84,          0,     0.00,    9.18204,  -107.04,    76.0606,   132.00,     75.883,    11.71,    66.4532,  -108.16,          0,     0.00,    9.18204,    72.96
Line.LINE84, 1.58582E-009,   -47.23, 1.0733E-009,  -167.47, 9.31323E-010,    90.00,          0,     0.00, 4.6657E-010,   -86.42, 1.58582E-009,   132.77, 1.0733E-009,    12.53, 9.31323E-010,   -90.00,          0,     0.00, 4.6657E-010,    93.58
Line.LINE85, 4.7383E-009,   102.41, 1.63085E-009,  -124.82, 5.77988E-009,    62.40,          0,     0.00, 8.44242E-009,    85.06, 4.7383E-009,   -77.59, 1.63085E-009,    55.18, 5.77988E-009,  -117.60,          0,     0.00, 8.44242E-009,   -94.94
Line.LINE86, 6.13946E-010,   -31.43, 6.57418E-010,  -152.30, 6.40285E-010,    89.92,          0,     0.00, 5.91172E-011,   165.75, 6.13946E-010,   148.57, 6.57418E-010,    27.70, 6.40285E-010,   -90.08,          0,     0.00, 5.91172E-011,   -14.25
Line.LINE87,    76.0606,   -48.00,     75.883,  -168.29,    66.4532,    71.84,          0,     0.00,    9.18204,  -107.04,    76.0606,   132.00,     75.883,    11.71,    66.4532,  -108.16,          0,     0.00,    9.18204,    72.96
Line.LINE88, 5.08277E-010,   -66.37, 4.19741E-010,    33.69, 3.49246E-010,     0.00,          0,     0.00, 9.31777E-010,   -14.47, 5.08277E-010,   113.63, 4.19741E-010,  -146.31, 3.49246E-010,   180.00,          0,     0.00, 9.31777E-010,   165.53
Line.LINE89, 5.11433E-009,   101.82, 2.07272E-009,  -141.84, 5.61817E-009,    55.98,          0,     0.00, 8.39483E-009,    86.82, 5.11433E-009,   -78.18, 2.07272E-009,    38.16, 5.61817E-009,  -124.02,          0,     0.00, 8.39483E-009,   -93.18
Line.LINE90, 5.4913E-010,   -32.01, 6.50781E-010,  -153.43, 5.82077E-010,    90.00,          0,     0.00, 1.16415E-010,   180.00, 5.4913E-010,   147.99, 6.50781E-010,    26.57, 5.82077E-010,   -90.00,          0,     0.00, 1.16415E-010,     0.00
Line.LINE91,    76.0606,   -48.00,     75.883,  -168.29,    66.4532,    71.84,          0,     0.00,    9.18204,  -107.04,    76.0606,   132.00,     75.883,    11.71,    66.4532,  -108.16,          0,     0.00,    9.18204,    72.96
Line.LINE92, 9.31323E-009,   143.13, 4.86165E-009,   -73.30, 6.2475E-009,    63.43,          0,     0.00, 7.28875E-009,   116.57, 9.31323E-009,   -36.87, 4.86165E-009,   106.70, 6.2475E-009,  -116.57,          0,     0.00, 7.28875E-009,   -63.43
Line.LINE93, 7.36275E-010,   -18.43, 4.19741E-010,  -123.69, 4.65661E-010,    90.00,          0,     0.00, 4.79993E-010,   -14.04, 7.36275E-010,   161.57, 4.19741E-010,    56.31, 4.65661E-010,   -90.00,          0,     0.00, 4.79993E-010,   165.96
Line.LINE94,    76.0606,   -48.00,     75.883,  -168.29,    66.4532,    71.84,          0,     0.00,    9.18204,  -107.04,    76.0606,   132.00,     75.883,    11.71,    66.4532,  -108.16,          0,     0.00,    9.18204,    72.96
Line.LINE95, 4.44822E-009,   132.88, 4.11919E-009,  -137.29, 1.02127E-008,    46.85,          0,     0.00, 7.97084E-009,    83.29, 4.44822E-009,   -47.12, 4.11919E-009,    42.71, 1.02127E-008,  -133.15,          0,     0.00, 7.97084E-009,   -96.71
Line.LINE96, 2.60313E-010,   -26.57, 4.79993E-010,  -165.96, 4.65661E-010,    90.00,          0,     0.00, 3.29272E-010,   135.00, 2.60313E-010,   153.43, 4.79993E-010,    14.04, 4.65661E-010,   -90.00,          0,     0.00, 3.29272E-010,   -45.00
Line.LINE97,    76.0606,   -48.00,     75.883,  -168.29,    66.4532,    71.84,          0,     0.00,    9.18204,  -107.04,    76.0606,   132.00,     75.883,    11.71,    66.4532,  -108.16,          0,     0.00,    9.18204,    72.96
Line.LINE98, 2.0825E-009,  -153.43, 6.51926E-009,   180.00, 5.26836E-009,    45.00,          0,     0.00, 5.4305E-009,   149.04, 2.0825E-009,    26.57, 6.51926E-009,     0.00, 5.26836E-009,  -135.00,          0,     0.00, 5.4305E-009,   -30.96
Line.LINE99, 5.82077E-011,    90.00, 5.82077E-011,    90.00, 1.16415E-010,   -90.00,          0,     0.00,          0,     0.00, 5.82077E-011,   -90.00, 5.82077E-011,   -90.00, 1.16415E-010,    90.00,          0,     0.00,          0,     0.00
Line.LINE100,    76.0606,   -48.00,     75.883,  -168.29,    66.4532,    71.84,          0,     0.00,    9.18204,  -107.04,    76.0606,   132.00,     75.883,    11.71,    66.4532,  -108.16,          0,     0.00,    9.18204,    72.96
Line.LINE101, 2.08059E-009,  -151.37, 5.31195E-010,  -156.60, 3.89002E-009,    45.91,          0,     0.00, 1.6341E-009,    76.09, 2.08059E-009,    28.63, 5.31195E-010,    23.40, 3.89002E-009,  -134.09,          0,     0.00, 1.6341E-009,  -103.91
Line.LINE102, 4.1159E-011,   135.00, 1.45519E-011,    90.00, 9.09495E-013,   180.00,          0,     0.00, 5.29776E-011,   124.51, 4.1159E-011,   -45.00, 1.45519E-011,   -90.00, 9.09495E-013,     0.00,          0,     0.00, 5.29776E-011,   -55.49
Line.LINE103,    4.44243,   -48.10,    13.3241,  -168.26,    8.84064,    71.81,          0,     0.00,    7.69697,   161.97,    4.44243,   131.90,    13.3241,    11.74,    8.84064,  -108.19,          0,     0.00,    7.69697,   -18.03
Line.LINE104,    71.6182,   -47.99,    62.5589,  -168.30,    57.6126,    71.84,          0,     0.00,    12.0827,   -67.48,    71.6182,   132.01,    62.5589,    11.70,    57.6126,  -108.16,          0,     0.00,    12.0827,   112.52
Line.LINE105, 2.55319E-009,  -133.15, 1.14656E-009,   -23.96, 4.79993E-009,    50.91,          0,     0.00, 2.71525E-009,    30.96, 2.55319E-009,    46.85, 1.14656E-009,   156.04, 4.79993E-009,  -129.09,          0,     0.00, 2.71525E-009,  -149.04
Line.LINE106,    4.44243,   -48.10,    13.3241,  -168.26,    8.84064,    71.81,          0,     0.00,    7.69697,   161.97,    4.44243,   131.90,    13.3241,    11.74,    8.84064,  -108.19,          0,     0.00,    7.69697,   -18.03
Line.LINE107,    71.6182,   -47.99,    62.5589,  -168.30,    57.6126,    71.84,          0,     0.00,    12.0827,   -67.48,    71.6182,   132.01,    62.5589,    11.70,    57.6126,  -108.16,          0,     0.00,    12.0827,   112.52
Line.LINE108, 1.30156E-009,  -116.57, 2.22411E-009,  -137.12, 4.11919E-009,    42.71,          0,     0.00, 8.23181E-010,     8.13, 1.30156E-009,    63.43, 2.22411E-009,    42.88, 4.11919E-009,  -137.29,          0,     0.00, 8.23181E-010,  -171.87
Line.LINE109,    4.44243,   -48.10,    13.3241,  -168.26,    8.84064,    71.81,          0,     0.00,    7.69697,   161.97,    4.44243,   131.90,    13.3241,    11.74,    8.84064,  -108.19,          0,     0.00,    7.69697,   -18.03
Line.LINE110,    71.6182,   -47.99,    62.5589,  -168.30,    57.6126,    71.84,          0,     0.00,    12.0827,   -67.48,    71.6182,   132.01,    62.5589,    11.70,    57.6126,  -108.16,          0,     0.00,    12.0827,   112.52
Line.LINE111, 1.41493E-009,  -135.63, 1.1558E-009,  -126.62, 4.417E-009,    43.00,          0,     0.00, 1.8813E-009,    35.60, 1.41493E-009,    44.37, 1.1558E-009,    53.38, 4.417E-009,  -137.00,          0,     0.00, 1.8813E-009,  -144.40
Line.LINE112,    4.44243,   -48.10,    13.3241,  -168.26,    8.84064,    71.81,          0,     0.00,    7.69697,   161.97,    4.44243,   131.90,    13.3241,    11.74,    8.84064,  -108.19,          0,     0.00,    7.69697,   -18.03
Line.LINE113,    71.6182,   -47.99,    62.5589,  -168.30,    57.6126,    71.84,          0,     0.00,    12.0827,   -67.48,    71.6182,   132.01,    62.5589,    11.70,    57.6126,  -108.16,          0,     0.00,    12.0827,   112.52
Line.LINE114, 1.42904E-009,  -134.54, 1.17669E-009,  -129.10, 4.42233E-009,    42.93,          0,     0.00, 1.84327E-009,    35.89, 1.42904E-009,    45.46, 1.17669E-009,    50.90, 4.42233E-009,  -137.07,          0,     0.00, 1.84327E-009,  -144.11
Line.LINE115,    4.44243,   -48.10,    13.3241,  -168.26,    8.84064,    71.81,          0,     0.00,    7.69697,   161.97,    4.44243,   131.90,    13.3241,    11.74,    8.84064,  -108.19,          0,     0.00,    7.69697,   -18.03
Line.LINE116,    4.44782,   -48.08,    8.89086,  -168.26,    8.84745,    71.82,          0,     0.00,    4.43249,   132.13,    4.44782,   131.92,    8.89086,    11.74,    8.84745,  -108.18,          0,     0.00,    4.43249,   -47.87
Line.LINE117,    67.1704,   -47.98,    53.6681,  -168.30,    48.7651,    71.84,          0,     0.00,     16.326,   -62.25,    67.1704,   132.02,    53.6681,    11.70,    48.7651,  -108.16,          0,     0.00,     16.326,   117.75
Line.LINE118, 1.32734E-009,  -142.13, 1.25687E-009,  -132.18, 4.12905E-009,    40.43,          0,     0.00, 1.55998E-009,    36.66, 1.32734E-009,    37.87, 1.25687E-009,    47.82, 4.12905E-009,  -139.57,          0,     0.00, 1.55998E-009,  -143.34
Line.LINE119,    4.44243,   -48.10,    13.3241,  -168.26,    8.84064,    71.81,          0,     0.00,    7.69697,   161.97,    4.44243,   131.90,    13.3241,    11.74,    8.84064,  -108.19,          0,     0.00,    7.69697,   -18.03
Line.LINE120, 2.60313E-010,   153.43, 2.09871E-010,    33.69, 1.74661E-010,   -91.19,          0,     0.00, 8.49295E-011,   136.74, 2.60313E-010,   -26.57, 2.09871E-010,  -146.31, 1.74661E-010,    88.81,          0,     0.00, 8.49295E-011,   -43.26
Line.LINE121,    4.44782,   -48.08,    8.89086,  -168.26,    8.84745,    71.82,          0,     0.00,    4.43249,   132.13,    4.44782,   131.92,    8.89086,    11.74,    8.84745,  -108.18,          0,     0.00,    4.43249,   -47.87
Line.LINE122,    67.1704,   -47.98,    53.6681,  -168.30,    48.7651,    71.84,          0,     0.00,     16.326,   -62.25,    67.1704,   132.02,    53.6681,    11.70,    48.7651,  -108.16,          0,     0.00,     16.326,   117.75
Line.LINE123, 1.52594E-009,  -145.10, 1.35669E-009,  -125.39, 4.36363E-009,    43.92,          0,     0.00, 1.52344E-009,    43.45, 1.52594E-009,    34.90, 1.35669E-009,    54.61, 4.36363E-009,  -136.08,          0,     0.00, 1.52344E-009,  -136.55
Line.LINE124,    4.44243,   -48.10,    13.3241,  -168.26,    8.84064,    71.81,          0,     0.00,    7.69697,   161.97,    4.44243,   131.90,    13.3241,    11.74,    8.84064,  -108.19,          0,     0.00,    7.69697,   -18.03
Line.LINE125, 2.60313E-010,   153.43, 3.13458E-010,    21.80, 2.91044E-010,   -90.36,          0,     0.00, 8.10421E-011,   -45.91, 2.60313E-010,   -26.57, 3.13458E-010,  -158.20, 2.91044E-010,    89.64,          0,     0.00, 8.10421E-011,   134.09
Line.LINE126,    4.44782,   -48.08,    8.89086,  -168.26,    8.84745,    71.82,          0,     0.00,    4.43249,   132.13,    4.44782,   131.92,    8.89086,    11.74,    8.84745,  -108.18,          0,     0.00,    4.43249,   -47.87
Line.LINE127,    67.1704,   -47.98,    53.6681,  -168.30,    48.7651,    71.84,          0,     0.00,     16.326,   -62.25,    67.1704,   132.02,    53.6681,    11.70,    48.7651,  -108.16,          0,     0.00,     16.326,   117.75
Line.LINE128, 1.58796E-009,  -153.90, 1.64636E-009,  -135.00, 4.56402E-009,    37.75,          0,     0.00, 1.38021E-009,    42.44, 1.58796E-009,    26.10, 1.64636E-009,    45.00, 4.56402E-009,  -142.25,          0,     0.00, 1.38021E-009,  -137.56
Line.LINE129,    4.44243,   -48.10,    13.3241,  -168.26,    8.84064,    71.81,          0,     0.00,    7.69697,   161.97,    4.44243,   131.90,    13.3241,    11.74,    8.84064,  -108.19,          0,     0.00,    7.69697,   -18.03
Line.LINE130, 1.30156E-010,   153.43, 1.30156E-010,    26.57, 2.32838E-010,   -90.45,          0,     0.00, 1.1643E-010,   -90.90, 1.30156E-010,   -26.57, 1.30156E-010,  -153.43, 2.32838E-010,    89.55,          0,     0.00, 1.1643E-010,    89.10
Line.LINE131,    4.44782,   -48.08, 1.21065E-009,  -158.83, 8.22193E-010,    89.71,          0,     0.00,    4.44782,   -48.08,    4.44782,   131.92, 1.21065E-009,    21.17, 8.22193E-010,   -90.29,          0,     0.00,    4.44782,   131.92
Line.LINE132, 6.08133E-009,    -3.77,    8.89086,  -168.26,    8.84745,    71.82,          0,     0.00,    8.88029,   132.02, 6.08133E-009,   176.23,    8.89086,    11.74,    8.84745,  -108.18,          0,     0.00,    8.88029,   -47.98
Line.LINE133,    67.1704,   -47.98,    53.6681,  -168.30,    48.7651,    71.84,          0,     0.00,     16.326,   -62.25,    67.1704,   132.02,    53.6681,    11.70,    48.7651,  -108.16,          0,     0.00,     16.326,   117.75
Line.LINE134, 1.33886E-009,  -142.51, 1.46909E-009,  -123.69, 4.57773E-009,    41.39,          0,     0.00, 1.84488E-009,    32.44, 1.33886E-009,    37.49, 1.46909E-009,    56.31, 4.57773E-009,  -138.61,          0,     0.00, 1.84488E-009,  -147.56
Line.LINE135,    4.44243,   -48.10,    13.3241,  -168.26,    8.84064,    71.81,          0,     0.00,    7.69697,   161.97,    4.44243,   131.90,    13.3241,    11.74,    8.84064,  -108.19,          0,     0.00,    7.69697,   -18.03
Line.LINE136, 2.09871E-010,   146.31, 1.95234E-010,    26.57, 1.74644E-010,   -90.90,          0,     0.00, 2.92314E-011,    95.36, 2.09871E-010,   -33.69, 1.95234E-010,  -153.43, 1.74644E-010,    89.10,          0,     0.00, 2.92314E-011,   -84.64
Line.LINE137,    4.44782,   -48.08, 1.04925E-009,  -154.10, 8.1494E-010,    89.49,          0,     0.00,    4.44782,   -48.08,    4.44782,   131.92, 1.04925E-009,    25.90, 8.1494E-010,   -90.51,          0,     0.00,    4.44782,   131.92
Line.LINE138, 6.12489E-009,    -3.75,    8.89086,  -168.26,    8.84745,    71.82,          0,     0.00,    8.88029,   132.02, 6.12489E-009,   176.25,    8.89086,    11.74,    8.84745,  -108.18,          0,     0.00,    8.88029,   -47.98
Line.LINE139,    67.1704,   -47.98,    53.6681,  -168.30,    48.7651,    71.84,          0,     0.00,     16.326,   -62.25,    67.1704,   132.02,    53.6681,    11.70,    48.7651,  -108.16,          0,     0.00,     16.326,   117.75
Line.LINE140, 1.39281E-009,  -152.63, 1.51347E-009,  -133.05, 4.26349E-009,    38.90,          0,     0.00, 1.40183E-009,    41.63, 1.39281E-009,    27.37, 1.51347E-009,    46.95, 4.26349E-009,  -141.10,          0,     0.00, 1.40183E-009,  -138.37
Line.LINE141,    4.44243,   -48.10,    13.3241,  -168.26,    8.84064,    71.81,          0,     0.00,    7.69697,   161.97,    4.44243,   131.90,    13.3241,    11.74,    8.84064,  -108.19,          0,     0.00,    7.69697,   -18.03
Line.LINE142, 6.50781E-011,   153.43, 6.50781E-011,    26.57, 1.81899E-012,   180.00,          0,     0.00, 5.82361E-011,    91.79, 6.50781E-011,   -26.57, 6.50781E-011,  -153.43, 1.81899E-012,     0.00,          0,     0.00, 5.82361E-011,   -88.21
Line.LINE143,    4.44782,   -48.08, 1.13019E-009,  -156.37, 8.1494E-010,    89.49,          0,     0.00,    4.44782,   -48.08,    4.44782,   131.92, 1.13019E-009,    23.63, 8.1494E-010,   -90.51,          0,     0.00,    4.44782,   131.92
Line.LINE144, 6.07498E-009,    -4.81,    8.89086,  -168.26,    8.84745,    71.82,          0,     0.00,    8.88029,   132.02, 6.07498E-009,   175.19,    8.89086,    11.74,    8.84745,  -108.18,          0,     0.00,    8.88029,   -47.98
Line.LINE145,    67.1704,   -47.98,    53.6681,  -168.30,    48.7651,    71.84,          0,     0.00,     16.326,   -62.25,    67.1704,   132.02,    53.6681,    11.70,    48.7651,  -108.16,          0,     0.00,     16.326,   117.75
Line.LINE146, 1.56188E-009,  -153.43, 1.63397E-009,   -94.09, 3.81871E-009,    37.57,          0,     0.00, 1.5134E-009,     0.00, 1.56188E-009,    26.57, 1.63397E-009,    85.91, 3.81871E-009,  -142.43,          0,     0.00, 1.5134E-009,   180.00
Line.LINE147,    4.44243,   -48.10,    13.3241,  -168.26,    8.84064,    71.81,          0,     0.00,    7.69697,   161.97,    4.44243,   131.90,    13.3241,    11.74,    8.84064,  -108.19,          0,     0.00,    7.69697,   -18.03
Line.LINE148, 1.45519E-010,   143.13, 1.45519E-010,    36.87, 1.74625E-010,   -90.30,          0,     0.00, 9.09495E-013,   180.00, 1.45519E-010,   -36.87, 1.45519E-010,  -143.13, 1.74625E-010,    89.70,          0,     0.00, 9.09495E-013,     0.00
Line.LINE149,    4.44782,   -48.08, 1.14859E-009,  -166.16, 8.152E-010,    88.47,          0,     0.00,    4.44782,   -48.08,    4.44782,   131.92, 1.14859E-009,    13.84, 8.152E-010,   -91.53,          0,     0.00,    4.44782,   131.92
Line.LINE150, 6.03729E-009,    -3.73, 5.77036E-009,   110.67,    8.84745,    71.82,          0,     0.00,    8.84745,    71.82, 6.03729E-009,   176.27, 5.77036E-009,   -69.33,    8.84745,  -108.18,          0,     0.00,    8.84745,  -108.18
Line.LINE151, 9.34946E-011,    -1.05,    8.89086,  -168.26, 1.05594E-009,    92.39,          0,     0.00,    8.89086,  -168.26, 9.34946E-011,   178.95,    8.89086,    11.74, 1.05594E-009,   -87.61,          0,     0.00,    8.89086,    11.74
Line.LINE152,    67.1704,   -47.98,    53.6681,  -168.30,    48.7651,    71.84,          0,     0.00,     16.326,   -62.25,    67.1704,   132.02,    53.6681,    11.70,    48.7651,  -108.16,          0,     0.00,     16.326,   117.75
Line.LINE153, 2.14659E-009,  -167.47, 4.19095E-009,     0.00, 4.65661E-009,    53.13,          0,     0.00, 5.87638E-009,    33.69, 2.14659E-009,    12.53, 4.19095E-009,   180.00, 4.65661E-009,  -126.87,          0,     0.00, 5.87638E-009,  -146.31
Line.LINE154,    4.44243,   -48.10,    13.3241,  -168.26,    8.84064,    71.81,          0,     0.00,    7.69697,   161.97,    4.44243,   131.90,    13.3241,    11.74,    8.84064,  -108.19,          0,     0.00,    7.69697,   -18.03
Line.LINE155, 2.91038E-010,   143.13, 2.74565E-010,    32.01, 2.91074E-010,   -90.90,          0,     0.00, 2.9457E-011,    98.88, 2.91038E-010,   -36.87, 2.74565E-010,  -147.99, 2.91074E-010,    89.10,          0,     0.00, 2.9457E-011,   -81.12
Line.LINE156,    4.44782,   -48.08, 1.07965E-009,  -158.87, 8.1494E-010,    89.49,          0,     0.00,    4.44782,   -48.08,    4.44782,   131.92, 1.07965E-009,    21.13, 8.1494E-010,   -90.51,          0,     0.00,    4.44782,   131.92
Line.LINE157, 6.02201E-009,    -2.29, 5.70096E-009,   109.85,    8.84745,    71.82,          0,     0.00,    8.84745,    71.82, 6.02201E-009,   177.71, 5.70096E-009,   -70.15,    8.84745,  -108.18,          0,     0.00,    8.84745,  -108.18
Line.LINE158, 1.39912E-010,   -29.61,    8.89086,  -168.26, 9.32033E-010,    92.24,          0,     0.00,    8.89086,  -168.26, 1.39912E-010,   150.39,    8.89086,    11.74, 9.32033E-010,   -87.76,          0,     0.00,    8.89086,    11.74
Line.LINE159,    67.1704,   -47.98,    53.6681,  -168.30,    48.7651,    71.84,          0,     0.00,     16.326,   -62.25,    67.1704,   132.02,    53.6681,    11.70,    48.7651,  -108.16,          0,     0.00,     16.326,   117.75
Line.LINE160, 2.71525E-009,   -30.96, 2.32831E-009,    36.87, 1.86265E-009,    90.00,          0,     0.00, 4.58623E-009,    23.96, 2.71525E-009,   149.04, 2.32831E-009,  -143.13, 1.86265E-009,   -90.00,          0,     0.00, 4.58623E-009,  -156.04
Line.LINE161, 2.16882E-011,   142.27,     4.4399,  -168.26, 2.55024E-011,    86.93,          0,     0.00,     4.4399,  -168.26, 2.16882E-011,   -37.73,     4.4399,    11.74, 2.55024E-011,   -93.07,          0,     0.00,     4.4399,    11.74
Line.LINE162,    4.44243,   -48.10,    8.88417,  -168.26,    8.84064,    71.81,          0,     0.00,    4.43001,   132.14,    4.44243,   131.90,    8.88417,    11.74,    8.84064,  -108.19,          0,     0.00,    4.43001,   -47.86
Line.LINE163, 2.86639E-010,   156.04, 2.60313E-010,    26.57, 2.32847E-010,   -90.67,          0,     0.00, 3.18323E-011,   180.00, 2.86639E-010,   -23.96, 2.60313E-010,  -153.43, 2.32847E-010,    89.33,          0,     0.00, 3.18323E-011,     0.00
Line.LINE164,    4.44782,   -48.08, 1.02608E-009,  -158.53, 7.57128E-010,    88.07,          0,     0.00,    4.44782,   -48.08,    4.44782,   131.92, 1.02608E-009,    21.47, 7.57128E-010,   -91.93,          0,     0.00,    4.44782,   131.92
Line.LINE165, 6.12808E-009,    -1.36, 5.67174E-009,   110.11,    8.84745,    71.82,          0,     0.00,    8.84745,    71.82, 6.12808E-009,   178.64, 5.67174E-009,   -69.89,    8.84745,  -108.18,          0,     0.00,    8.84745,  -108.18
Line.LINE166, 5.85265E-011,   122.95,    8.89086,  -168.26, 1.16472E-009,    91.79,          0,     0.00,    8.89086,  -168.26, 5.85265E-011,   -57.05,    8.89086,    11.74, 1.16472E-009,   -88.21,          0,     0.00,    8.89086,    11.74
Line.LINE167,    67.1704,   -47.98,    53.6681,  -168.30,    48.7651,    71.84,          0,     0.00,     16.326,   -62.25,    67.1704,   132.02,    53.6681,    11.70,    48.7651,  -108.16,          0,     0.00,     16.326,   117.75
Line.LINE168, 3.29272E-010,    45.00, 8.39483E-010,  -146.31, 4.65661E-010,    90.00,          0,     0.00, 5.20625E-010,   153.43, 3.29272E-010,  -135.00, 8.39483E-010,    33.69, 4.65661E-010,   -90.00,          0,     0.00, 5.20625E-010,   -26.57
Line.LINE169, 9.34724E-012,    18.43,     4.4399,  -168.26, 2.9118E-011,    88.21,          0,     0.00,     4.4399,  -168.26, 9.34724E-012,  -161.57,     4.4399,    11.74, 2.9118E-011,   -91.79,          0,     0.00,     4.4399,    11.74
Line.LINE170,    4.44243,   -48.10,    8.88417,  -168.26,    8.84064,    71.81,          0,     0.00,    4.43001,   132.14,    4.44243,   131.90,    8.88417,    11.74,    8.84064,  -108.19,          0,     0.00,    4.43001,   -47.86
Line.LINE171, 1.45519E-010,   143.13, 1.64636E-010,    45.00, 2.91044E-010,   -90.36,          0,     0.00, 8.73304E-011,   -91.19, 1.45519E-010,   -36.87, 1.64636E-010,  -135.00, 2.91044E-010,    89.64,          0,     0.00, 8.73304E-011,    88.81
Line.LINE172,    4.44782,   -48.08, 7.75629E-010,  -157.96, 5.82122E-010,    89.28,          0,     0.00,    4.44782,   -48.08,    4.44782,   131.92, 7.75629E-010,    22.04, 5.82122E-010,   -90.72,          0,     0.00,    4.44782,   131.92
Line.LINE173, 5.42788E-009,     0.15, 5.73412E-009,   111.75, 9.38773E-009,    86.62,          0,     0.00, 1.5209E-008,    75.31, 5.42788E-009,  -179.85, 5.73412E-009,   -68.25, 9.38773E-009,   -93.38,          0,     0.00, 1.5209E-008,  -104.69
Line.LINE174, 6.85024E-010,   -30.53, 2.37643E-010,     9.44,    8.84745,    71.82,          0,     0.00,    8.84745,    71.82, 6.85024E-010,   149.47, 2.37643E-010,  -170.56,    8.84745,  -108.18,          0,     0.00,    8.84745,  -108.18
Line.LINE175, 2.74942E-010,    39.43,    8.89086,  -168.26, 4.6657E-010,    93.58,          0,     0.00,    8.89086,  -168.26, 2.74942E-010,  -140.57,    8.89086,    11.74, 4.6657E-010,   -86.42,          0,     0.00,    8.89086,    11.74
Line.LINE176,    67.1704,   -47.98,    53.6681,  -168.30,    48.7651,    71.84,          0,     0.00,     16.326,   -62.25,    67.1704,   132.02,    53.6681,    11.70,    48.7651,  -108.16,          0,     0.00,     16.326,   117.75
Line.LINE177, 7.67261E-012,   115.33,     4.4399,  -168.26, 4.54747E-013,     0.00,          0,     0.00,     4.4399,  -168.26, 7.67261E-012,   -64.67,     4.4399,    11.74, 4.54747E-013,   180.00,          0,     0.00,     4.4399,    11.74
Line.LINE178,    4.44243,   -48.10,    8.88417,  -168.26, 2.60313E-010,   116.57,          0,     0.00,    7.68117,  -138.26,    4.44243,   131.90,    8.88417,    11.74, 2.60313E-010,   -63.43,          0,     0.00,    7.68117,    41.74
Line.LINE179, 5.0512E-010,   -37.52, 5.98041E-010,    25.35,    8.84064,    71.81,          0,     0.00,    8.84064,    71.81, 5.0512E-010,   142.48, 5.98041E-010,  -154.65,    8.84064,  -108.19,          0,     0.00,    8.84064,  -108.19
Line.LINE180, 2.09871E-010,   146.31, 2.60313E-010,    26.57, 2.32831E-010,   -90.00,          0,     0.00, 5.82077E-011,     0.00, 2.09871E-010,   -33.69, 2.60313E-010,  -153.43, 2.32831E-010,    90.00,          0,     0.00, 5.82077E-011,   180.00
Line.LINE181,    4.44782,   -48.08, 8.81291E-010,  -159.65, 4.65889E-010,    88.21,          0,     0.00,    4.44782,   -48.08,    4.44782,   131.92, 8.81291E-010,    20.35, 4.65889E-010,   -91.79,          0,     0.00,    4.44782,   131.92
Line.LINE182, 5.25934E-009,     5.08, 5.93718E-009,   118.07, 8.49752E-009,    80.54,          0,     0.00, 1.46007E-008,    74.74, 5.25934E-009,  -174.92, 5.93718E-009,   -61.93, 8.49752E-009,   -99.46,          0,     0.00, 1.46007E-008,  -105.26
Line.LINE183, 7.52117E-010,   -27.28, 2.34947E-010,     2.88,    8.84745,    71.82,          0,     0.00,    8.84745,    71.82, 7.52117E-010,   152.72, 2.34947E-010,  -177.12,    8.84745,  -108.18,          0,     0.00,    8.84745,  -108.18
Line.LINE184, 5.49139E-011,   -83.58,    8.89086,  -168.26, 1.397E-009,    89.70,          0,     0.00,    8.89086,  -168.26, 5.49139E-011,    96.42,    8.89086,    11.74, 1.397E-009,   -90.30,          0,     0.00,    8.89086,    11.74
Line.LINE185,    67.1704,   -47.98,    53.6681,  -168.30,    48.7651,    71.84,          0,     0.00,     16.326,   -62.25,    67.1704,   132.02,    53.6681,    11.70,    48.7651,  -108.16,          0,     0.00,     16.326,   117.75
Line.LINE186,    4.44243,   -48.10,    8.88417,  -168.26, 6.50781E-011,   116.57,          0,     0.00,    7.68117,  -138.26,    4.44243,   131.90,    8.88417,    11.74, 6.50781E-011,   -63.43,          0,     0.00,    7.68117,    41.74
Line.LINE187, 5.05536E-010,   -36.27, 5.85972E-010,    25.90,    8.84064,    71.81,          0,     0.00,    8.84064,    71.81, 5.05536E-010,   143.73, 5.85972E-010,  -154.10,    8.84064,  -108.19,          0,     0.00,    8.84064,  -108.19
Line.LINE188, 1.84069E-010,   161.57, 1.95234E-010,    26.57, 1.74661E-010,   -88.81,          0,     0.00, 2.93303E-011,   -82.87, 1.84069E-010,   -18.43, 1.95234E-010,  -153.43, 1.74661E-010,    91.19,          0,     0.00, 2.93303E-011,    97.13
Line.LINE189,    4.44782,   -48.08, 9.10049E-010,  -162.97, 5.82122E-010,    90.72,          0,     0.00,    4.44782,   -48.08,    4.44782,   131.92, 9.10049E-010,    17.03, 5.82122E-010,   -89.28,          0,     0.00,    4.44782,   131.92
Line.LINE190, 4.1159E-011,   -45.00, 2.21648E-010,   156.80, 5.4913E-010,   122.01,          0,     0.00, 7.00913E-010,   131.63, 4.1159E-011,   135.00, 2.21648E-010,   -23.20, 5.4913E-010,   -57.99,          0,     0.00, 7.00913E-010,   -48.37
Line.LINE191, 4.93359E-009,    19.29, 5.16968E-009,   125.84, 1.05058E-008,    77.20,          0,     0.00, 1.65457E-008,    76.16, 4.93359E-009,  -160.71, 5.16968E-009,   -54.16, 1.05058E-008,  -102.80,          0,     0.00, 1.65457E-008,  -103.84
Line.LINE192, 6.19159E-010,   -28.04, 2.67106E-010,    -1.17,    8.84745,    71.82,          0,     0.00,    8.84745,    71.82, 6.19159E-010,   151.96, 2.67106E-010,   178.83,    8.84745,  -108.18,          0,     0.00,    8.84745,  -108.18
Line.LINE193, 2.06589E-010,    -6.07,    8.89086,  -168.26, 1.2807E-009,    89.19,          0,     0.00,    8.89086,  -168.26, 2.06589E-010,   173.93,    8.89086,    11.74, 1.2807E-009,   -90.81,          0,     0.00,    8.89086,    11.74
Line.LINE194,    67.1704,   -47.98,    53.6681,  -168.30,    48.7651,    71.84,          0,     0.00,     16.326,   -62.25,    67.1704,   132.02,    53.6681,    11.70,    48.7651,  -108.16,          0,     0.00,     16.326,   117.75
Line.LINE195,    4.44243,   -48.10,    8.88417,  -168.26, 1.30156E-010,    26.57,          0,     0.00,    7.68117,  -138.26,    4.44243,   131.90,    8.88417,    11.74, 1.30156E-010,  -153.43,          0,     0.00,    7.68117,    41.74
Line.LINE196, 1.11969E-011,   150.83, 3.6574E-011,   167.43,    4.42026,    71.81,          0,     0.00,    4.42026,    71.81, 1.11969E-011,   -29.17, 3.6574E-011,   -12.57,    4.42026,  -108.19,          0,     0.00,    4.42026,  -108.19
Line.LINE197, 5.09729E-010,   -33.28, 6.30868E-010,    23.72,    4.42038,    71.81,          0,     0.00,    4.42038,    71.81, 5.09729E-010,   146.72, 6.30868E-010,  -156.28,    4.42038,  -108.19,          0,     0.00,    4.42038,  -108.19
Line.LINE198, 2.91038E-011,    90.00, 2.91038E-011,    90.00, 9.09495E-013,   180.00,          0,     0.00, 5.82148E-011,    90.90, 2.91038E-011,   -90.00, 2.91038E-011,   -90.00, 9.09495E-013,     0.00,          0,     0.00, 5.82148E-011,   -89.10
Line.LINE199,    4.44782,   -48.08, 7.12436E-010,  -160.77, 6.98833E-010,    88.21,          0,     0.00,    4.44782,   -48.08,    4.44782,   131.92, 7.12436E-010,    19.23, 6.98833E-010,   -91.79,          0,     0.00,    4.44782,   131.92
Line.LINE200, 4.97326E-010,    69.44, 6.98492E-010,     0.00, 4.19741E-010,   146.31,          0,     0.00, 8.73115E-010,    53.13, 4.97326E-010,  -110.56, 6.98492E-010,   180.00, 4.19741E-010,   -33.69,          0,     0.00, 8.73115E-010,  -126.87
...
Transformer.TR1,    3.38036,   -19.82,    2.86364,  -142.23,    3.04182,   107.54,          0,     0.00, 5.08423E-013,   -63.43,     93.744,   131.97,    84.7155,    11.71,    66.4532,  -108.16,    23.7544,   -88.90, 1.27918E-007,    69.30
Load.LOAD1,    4.40779,   -48.21,    4.40779,   131.79,          0,     0.00,          0,     0.00,          0,     0.00,          0,     0.00,          0,     0.00,          0,     0.00,          0,     0.00,          0,     0.00
Load.LOAD2,    4.41618,  -168.28,    4.41618,    11.72,          0,     0.00,          0,     0.00,          0,     0.00,          0,     0.00,          0,     0.00,          0,     0.00,          0,     0.00,          0,     0.00
Load.LOAD3,    4.40792,   -48.21,    4.40792,   131.79,          0,     0.00,          0,     0.00,          0,     0.00,          0,     0.00,          0,     0.00,          0,     0.00,          0,     0.00,          0,     0.00
Load.LOAD4,    4.43373,   -48.12,    4.43373,   131.88,          0,     0.00,          0,     0.00,          0,     0.00,          0,     0.00,          0,     0.00,          0,     0.00,          0,     0.00,          0,     0.00
Load.LOAD5,    4.43373,   -48.12,    4.43373,   131.88,          0,     0.00,          0,     0.00,          0,     0.00,          0,     0.00,          0,     0.00,          0,     0.00,          0,     0.00,          0,     0.00
Load.LOAD6,    4.41621,  -168.28,    4.41621,    11.72,          0,     0.00,          0,     0.00,          0,     0.00,          0,     0.00,          0,     0.00,          0,     0.00,          0,     0.00,          0,     0.00
Load.LOAD7,    4.43981,  -168.26,    4.43981,    11.74,          0,     0.00,          0,     0.00,          0,     0.00,          0,     0.00,          0,     0.00,          0,     0.00,          0,     0.00,          0,     0.00
Load.LOAD8,    4.42018,    71.81,    4.42018,  -108.19,          0,     0.00,          0,     0.00,          0,     0.00,          0,     0.00,          0,     0.00,          0,     0.00,          0,     0.00,          0,     0.00
Load.LOAD9,    4.44232,   -48.10,    4.44232,   131.90,          0,     0.00,          0,     0.00,          0,     0.00,          0,     0.00,          0,     0.00,          0,     0.00,          0,     0.00,          0,     0.00
Load.LOAD10,    4.44199,  -168.26,    4.44199,    11.74,          0,     0.00,          0,     0.00,          0,     0.00,          0,     0.00,          0,     0.00,          0,     0.00,          0,     0.00,          0,     0.00
Load.LOAD11,    4.44199,  -168.26,    4.44199,    11.74,          0,     0.00,          0,     0.00,          0,     0.00,          0,     0.00,          0,     0.00,          0,     0.00,          0,     0.00,          0,     0.00
Load.LOAD12,     4.4203,    71.81,     4.4203,  -108.19,          0,     0.00,          0,     0.00,          0,     0.00,          0,     0.00,          0,     0.00,          0,     0.00,          0,     0.00,          0,     0.00
Load.LOAD13,    4.44543,  -168.26,    4.44543,    11.74,          0,     0.00,          0,     0.00,          0,     0.00,          0,     0.00,          0,     0.00,          0,     0.00,          0,     0.00,          0,     0.00
Load.LOAD14,    4.44771,   -48.08,    4.44771,   131.92,          0,     0.00,          0,     0.00,          0,     0.00,          0,     0.00,          0,     0.00,          0,     0.00,          0,     0.00,          0,     0.00
Load.LOAD15,    4.44524,  -168.26,    4.44524,    11.74,          0,     0.00,          0,     0.00,          0,     0.00,          0,     0.00,          0,     0.00,          0,     0.00,          0,     0.00,          0,     0.00
Load.LOAD16,    4.42381,    71.82,    4.42381,  -108.18,          0,     0.00,          0,     0.00,          0,     0.00,          0,     0.00,          0,     0.00,          0,     0.00,          0,     0.00,          0,     0.00
Load.LOAD17,    4.42346,    71.82,    4.42346,  -108.18,          0,     0.00,          0,     0.00,          0,     0.00,          0,     0.00,          0,     0.00,          0,     0.00,          0,     0.00,          0,     0.00
Load.LOAD18,    4.42816,    71.85,    4.42816,  -108.15,          0,     0.00,          0,     0.00,          0,     0.00,          0,     0.00,          0,     0.00,          0,     0.00,          0,     0.00,          0,     0.00
Load.LOAD19,    4.42798,    71.84,    4.42798,  -108.16,          0,     0.00,          0,     0.00,          0,     0.00,          0,     0.00,          0,     0.00,          0,     0.00,          0,     0.00,          0,     0.00
Load.LOAD20,     4.4667,   -48.04,     4.4667,   131.96,          0,     0.00,          0,     0.00,          0,     0.00,          0,     0.00,          0,     0.00,          0,     0.00,          0,     0.00,          0,     0.00
Load.LOAD21,    4.45952,   -48.06,    4.45952,   131.94,          0,     0.00,          0,     0.00,          0,     0.00,          0,     0.00,          0,     0.00,          0,     0.00,          0,     0.00,          0,     0.00
Load.LOAD22,    4.46702,   -48.04,    4.46702,   131.96,          0,     0.00,          0,     0.00,          0,     0.00,          0,     0.00,          0,     0.00,          0,     0.00,          0,     0.00,          0,     0.00
Load.LOAD23,    4.45967,  -168.31,    4.45967,    11.69,          0,     0.00,          0,     0.00,          0,     0.00,          0,     0.00,          0,     0.00,          0,     0.00,          0,     0.00,          0,     0.00
Load.LOAD24,    4.43089,    71.85,    4.43089,  -108.15,          0,     0.00,          0,     0.00,          0,     0.00,          0,     0.00,          0,     0.00,          0,     0.00,          0,     0.00,          0,     0.00
Load.LOAD25,    4.48478,   -47.94,    4.48478,   132.06,          0,     0.00,          0,     0.00,          0,     0.00,          0,     0.00,          0,     0.00,          0,     0.00,          0,     0.00,          0,     0.00
Load.LOAD26,    4.46334,  -168.29,    4.46334,    11.71,          0,     0.00,          0,     0.00,          0,     0.00,          0,     0.00,          0,     0.00,          0,     0.00,          0,     0.00,          0,     0.00
Load.LOAD27,     4.4326,    71.85,     4.4326,  -108.15,          0,     0.00,          0,     0.00,          0,     0.00,          0,     0.00,          0,     0.00,          0,     0.00,          0,     0.00,          0,     0.00
Load.LOAD28,      4.433,    71.85,      4.433,  -108.15,          0,     0.00,          0,     0.00,          0,     0.00,          0,     0.00,          0,     0.00,          0,     0.00,          0,     0.00,          0,     0.00
Load.LOAD29,    4.48588,   -47.93,    4.48588,   132.07,          0,     0.00,          0,     0.00,          0,     0.00,          0,     0.00,          0,     0.00,          0,     0.00,          0,     0.00,          0,     0.00
Load.LOAD30,    4.48467,   -47.94,    4.48467,   132.06,          0,     0.00,          0,     0.00,          0,     0.00,          0,     0.00,          0,     0.00,          0,     0.00,          0,     0.00,          0,     0.00
Load.LOAD31,    4.48586,   -47.93,    4.48586,   132.07,          0,     0.00,          0,     0.00,          0,     0.00,          0,     0.00,          0,     0.00,          0,     0.00,          0,     0.00,          0,     0.00
Load.LOAD32,    4.43405,    71.84,    4.43405,  -108.16,          0,     0.00,          0,     0.00,          0,     0.00,          0,     0.00,          0,     0.00,          0,     0.00,          0,     0.00,          0,     0.00
Load.LOAD33,    4.42592,    71.85,    4.42592,  -108.15,          0,     0.00,          0,     0.00,          0,     0.00,          0,     0.00,          0,     0.00,          0,     0.00,          0,     0.00,          0,     0.00
Load.LOAD34,    4.48095,   -47.96,    4.48095,   132.04,          0,     0.00,          0,     0.00,          0,     0.00,          0,     0.00,          0,     0.00,          0,     0.00,          0,     0.00,          0,     0.00
Load.LOAD35,    4.47392,  -168.34,    4.47392,    11.66,          0,     0.00,          0,     0.00,          0,     0.00,          0,     0.00,          0,     0.00,          0,     0.00,          0,     0.00,          0,     0.00
Load.LOAD36,    4.47436,  -168.34,    4.47436,    11.66,          0,     0.00,          0,     0.00,          0,     0.00,          0,     0.00,          0,     0.00,          0,     0.00,          0,     0.00,          0,     0.00
Load.LOAD37,    4.47442,  -168.34,    4.47442,    11.66,          0,     0.00,          0,     0.00,          0,     0.00,          0,     0.00,          0,     0.00,          0,     0.00,          0,     0.00,          0,     0.00
Load.LOAD38,    4.46651,  -168.29,    4.46651,    11.71,          0,     0.00,          0,     0.00,          0,     0.00,          0,     0.00,          0,     0.00,          0,     0.00,          0,     0.00,          0,     0.00
Load.LOAD39,    4.43626,    71.84,    4.43626,  -108.16,          0,     0.00,          0,     0.00,          0,     0.00,          0,     0.00,          0,     0.00,          0,     0.00,          0,     0.00,          0,     0.00
Load.LOAD40,    4.47007,  -168.30,    4.47007,    11.70,          0,     0.00,          0,     0.00,          0,     0.00,          0,     0.00,          0,     0.00,          0,     0.00,          0,     0.00,          0,     0.00
Load.LOAD41,     4.4769,  -168.29,     4.4769,    11.71,          0,     0.00,          0,     0.00,          0,     0.00,          0,     0.00,          0,     0.00,          0,     0.00,          0,     0.00,          0,     0.00
Load.LOAD42,    4.43634,    71.84,    4.43634,  -108.16,          0,     0.00,          0,     0.00,          0,     0.00,          0,     0.00,          0,     0.00,          0,     0.00,          0,     0.00,          0,     0.00
Load.LOAD43,     4.4394,    71.83,     4.4394,  -108.17,          0,     0.00,          0,     0.00,          0,     0.00,          0,     0.00,          0,     0.00,          0,     0.00,          0,     0.00,          0,     0.00
Load.LOAD44,    4.46442,  -168.29,    4.46442,    11.71,          0,     0.00,          0,     0.00,          0,     0.00,          0,     0.00,          0,     0.00,          0,     0.00,          0,     0.00,          0,     0.00
Load.LOAD45,     4.4768,  -168.29,     4.4768,    11.71,          0,     0.00,          0,     0.00,          0,     0.00,          0,     0.00,          0,     0.00,          0,     0.00,          0,     0.00,          0,     0.00
Load.LOAD46,    4.47722,   -48.01,    4.47722,   131.99,          0,     0.00,          0,     0.00,          0,     0.00,          0,     0.00,          0,     0.00,          0,     0.00,          0,     0.00,          0,     0.00
Load.LOAD47,    4.43926,    71.83,    4.43926,  -108.17,          0,     0.00,          0,     0.00,          0,     0.00,          0,     0.00,          0,     0.00,          0,     0.00,          0,     0.00,          0,     0.00
Load.LOAD48,    4.47699,   -48.01,    4.47699,   131.99,          0,     0.00,          0,     0.00,          0,     0.00,          0,     0.00,          0,     0.00,          0,     0.00,          0,     0.00,          0,     0.00
Load.LOAD49,    4.47745,   -48.01,    4.47745,   131.99,          0,     0.00,          0,     0.00,          0,     0.00,          0,     0.00,          0,     0.00,          0,     0.00,          0,     0.00,          0,     0.00
...